
     RDKit          3D

 57 60  0  0  0  0  0  0  0  0999 V2000
  -17.2730   25.7000    2.7040 Cl  0  0  0  0  0  0  0  0  0  0  0  0
  -18.7800   23.1580    3.7150 Cl  0  0  0  0  0  0  0  0  0  0  0  0
  -11.8540   23.9280    3.3180 C   0  0  0  0  0  0  0  0  0  0  0  0
  -12.2470   24.6910    4.3350 N   0  0  0  0  0  0  0  0  0  0  0  0
  -12.1080   22.7270    3.2520 O   0  0  0  0  0  0  0  0  0  0  0  0
  -13.0920   24.1620    5.3980 C   0  0  0  0  0  0  0  0  0  0  0  0
   -7.1980   29.1340    1.9470 N   0  0  0  0  0  0  0  0  0  0  0  0
  -14.5130   23.9140    4.9600 C   0  0  0  0  0  0  0  0  0  0  0  0
  -11.6700   24.7240   -2.2610 N   0  0  0  0  0  0  0  0  0  0  0  0
  -15.1630   24.8140    4.1280 C   0  0  0  0  0  0  0  0  0  0  0  0
  -13.4660   25.0270   -3.5050 N   0  0  0  0  0  0  0  0  0  0  0  0
  -16.4730   24.5780    3.7470 C   0  0  0  0  0  0  0  0  0  0  0  0
  -12.9970   22.8060   -2.7160 N   0  0  0  0  0  0  0  0  0  0  0  0
  -17.1410   23.4490    4.1890 C   0  0  0  0  0  0  0  0  0  0  0  0
  -16.5010   22.5490    5.0180 C   0  0  0  0  0  0  0  0  0  0  0  0
  -15.1950   22.7890    5.3980 C   0  0  0  0  0  0  0  0  0  0  0  0
  -11.1310   24.6300    2.2110 C   0  0  0  0  0  0  0  0  0  0  0  0
  -10.5010   25.8520    2.4260 C   0  0  0  0  0  0  0  0  0  0  0  0
   -9.8270   26.5090    1.3980 C   0  0  0  0  0  0  0  0  0  0  0  0
   -9.1680   27.8220    1.6100 C   0  0  0  0  0  0  0  0  0  0  0  0
   -7.7780   27.9350    1.7740 C   0  0  0  0  0  0  0  0  0  0  0  0
   -6.8730   26.7390    1.8060 C   0  0  0  0  0  0  0  0  0  0  0  0
   -7.9470   30.2050    1.9240 C   0  0  0  0  0  0  0  0  0  0  0  0
   -9.3170   30.2150    1.7620 C   0  0  0  0  0  0  0  0  0  0  0  0
   -9.9220   28.9910    1.5900 C   0  0  0  0  0  0  0  0  0  0  0  0
   -9.8720   25.9390    0.1230 C   0  0  0  0  0  0  0  0  0  0  0  0
  -10.5140   24.7250   -0.1130 C   0  0  0  0  0  0  0  0  0  0  0  0
  -10.5700   24.1310   -1.4960 C   0  0  0  0  0  0  0  0  0  0  0  0
  -12.7250   24.0910   -2.7970 C   0  0  0  0  0  0  0  0  0  0  0  0
  -14.6400   24.7450   -4.3300 C   0  0  0  0  0  0  0  0  0  0  0  0
  -12.8790   26.2520   -3.3140 C   0  0  0  0  0  0  0  0  0  0  0  0
  -11.7810   26.0730   -2.5680 C   0  0  0  0  0  0  0  0  0  0  0  0
  -11.1550   24.0830    0.9350 C   0  0  0  0  0  0  0  0  0  0  0  0
   -7.3020   31.3790    2.1000 F   0  0  0  0  0  0  0  0  0  0  0  0
  -11.9477   25.6759    4.3716 H   0  0  0  0  0  0  0  0  0  0  0  0
  -12.6623   23.2108    5.7454 H   0  0  0  0  0  0  0  0  0  0  0  0
  -13.1236   24.9177    6.1967 H   0  0  0  0  0  0  0  0  0  0  0  0
  -14.6388   25.7131    3.7718 H   0  0  0  0  0  0  0  0  0  0  0  0
  -13.8410   22.4286   -3.1700 H   0  0  0  0  0  0  0  0  0  0  0  0
  -12.3659   22.1776   -2.1986 H   0  0  0  0  0  0  0  0  0  0  0  0
  -17.0262   21.6497    5.3723 H   0  0  0  0  0  0  0  0  0  0  0  0
  -14.6861   22.0738    6.0609 H   0  0  0  0  0  0  0  0  0  0  0  0
  -10.5356   26.3082    3.4264 H   0  0  0  0  0  0  0  0  0  0  0  0
   -6.6652   26.4643    2.8507 H   0  0  0  0  0  0  0  0  0  0  0  0
   -7.3613   25.8959    1.2954 H   0  0  0  0  0  0  0  0  0  0  0  0
   -5.9289   26.9798    1.2954 H   0  0  0  0  0  0  0  0  0  0  0  0
   -9.8947   31.1510    1.7699 H   0  0  0  0  0  0  0  0  0  0  0  0
  -11.0097   28.9365    1.4356 H   0  0  0  0  0  0  0  0  0  0  0  0
   -9.3885   26.4618   -0.7154 H   0  0  0  0  0  0  0  0  0  0  0  0
  -10.7264   23.0450   -1.4182 H   0  0  0  0  0  0  0  0  0  0  0  0
   -9.6218   24.3395   -2.0132 H   0  0  0  0  0  0  0  0  0  0  0  0
  -15.5033   24.5376   -3.6806 H   0  0  0  0  0  0  0  0  0  0  0  0
  -14.8597   25.6159   -4.9650 H   0  0  0  0  0  0  0  0  0  0  0  0
  -14.4401   23.8693   -4.9650 H   0  0  0  0  0  0  0  0  0  0  0  0
  -13.2456   27.2126   -3.7048 H   0  0  0  0  0  0  0  0  0  0  0  0
  -11.0839   26.8629   -2.2516 H   0  0  0  0  0  0  0  0  0  0  0  0
  -11.6850   23.1361    0.7550 H   0  0  0  0  0  0  0  0  0  0  0  0
  1 12  1  0
  2 14  1  0
  3  4  1  0
  3  5  2  0
  3 17  1  0
  4  6  1  0
  6  8  1  0
  7 21  2  0
  7 23  1  0
  8 10  2  0
  8 16  1  0
  9 28  1  0
  9 29  1  0
  9 32  1  0
 10 12  1  0
 11 29  2  0
 11 30  1  0
 11 31  1  0
 12 14  2  0
 13 29  1  0
 14 15  1  0
 15 16  2  0
 17 18  2  0
 17 33  1  0
 18 19  1  0
 19 20  1  0
 19 26  2  0
 20 21  1  0
 20 25  2  0
 21 22  1  0
 23 24  2  0
 23 34  1  0
 24 25  1  0
 26 27  1  0
 27 28  1  0
 27 33  2  0
 31 32  2  0
  4 35  1  0
  6 36  1  0
  6 37  1  0
 10 38  1  0
 13 39  1  0
 13 40  1  0
 15 41  1  0
 16 42  1  0
 18 43  1  0
 22 44  1  0
 22 45  1  0
 22 46  1  0
 24 47  1  0
 25 48  1  0
 26 49  1  0
 28 50  1  0
 28 51  1  0
 30 52  1  0
 30 53  1  0
 30 54  1  0
 31 55  1  0
 32 56  1  0
 33 57  1  0
M  CHG  1  11   1
M  END
$$$$
