G39
     RDKit          3D

 44 44  0  0  0  0  0  0  0  0999 V2000
    0.1675   79.4560  109.0486 C   0  0  1  0  0  0  0  0  0  0  0  0
    1.0655   78.3142  109.2726 N   0  0  0  0  0  4  0  0  0  0  0  0
   -0.9525   79.4613  110.1054 C   0  0  0  0  0  0  0  0  0  0  0  0
    0.9337   80.7959  109.1049 C   0  0  2  0  0  0  0  0  0  0  0  0
   -1.7936   80.7179  110.0766 C   0  0  0  0  0  0  0  0  0  0  0  0
   -0.0238   81.9632  108.7848 C   0  0  1  0  0  0  0  0  0  0  0  0
    2.0385   80.7893  108.1393 N   0  0  0  0  0  0  0  0  0  0  0  0
   -3.1098   80.6967  110.7582 C   0  0  0  0  0  0  0  0  0  0  0  0
   -1.3222   81.8635  109.5470 C   0  0  0  0  0  0  0  0  0  0  0  0
    0.6012   83.1890  109.1391 O   0  0  0  0  0  0  0  0  0  0  0  0
    3.4115   80.6228  108.5222 C   0  0  0  0  0  0  0  0  0  0  0  0
   -3.8538   81.7139  110.7636 O   0  0  0  0  0  0  0  0  0  0  0  0
   -3.5417   79.5445  111.4047 O   0  0  0  0  0  1  0  0  0  0  0  0
    0.9437   83.9723  108.0051 C   0  0  0  0  0  0  0  0  0  0  0  0
    3.7305   80.5131  109.7368 O   0  0  0  0  0  0  0  0  0  0  0  0
    4.4710   80.5269  107.4738 C   0  0  0  0  0  0  0  0  0  0  0  0
   -0.2798   84.7755  107.5022 C   0  0  0  0  0  0  0  0  0  0  0  0
    2.1083   84.9097  108.3772 C   0  0  0  0  0  0  0  0  0  0  0  0
   -0.8970   85.6874  108.5655 C   0  0  0  0  0  0  0  0  0  0  0  0
    3.3944   84.1349  108.6539 C   0  0  0  0  0  0  0  0  0  0  0  0
   -0.2993   79.3489  108.0419 H   0  0  0  0  0  0  0  0  0  0  0  0
    1.5926   78.4295  110.1690 H   0  0  0  0  0  0  0  0  0  0  0  0
    0.5111   77.4281  109.3139 H   0  0  0  0  0  0  0  0  0  0  0  0
    1.7426   78.2280  108.4808 H   0  0  0  0  0  0  0  0  0  0  0  0
   -1.6029   78.5762  109.9334 H   0  0  0  0  0  0  0  0  0  0  0  0
   -0.5086   79.3671  111.1206 H   0  0  0  0  0  0  0  0  0  0  0  0
    1.3258   80.9431  110.1370 H   0  0  0  0  0  0  0  0  0  0  0  0
   -0.3068   81.8980  107.7068 H   0  0  0  0  0  0  0  0  0  0  0  0
    1.8067   80.7865  107.1197 H   0  0  0  0  0  0  0  0  0  0  0  0
   -1.9417   82.7519  109.5602 H   0  0  0  0  0  0  0  0  0  0  0  0
    1.3054   83.3388  107.1605 H   0  0  0  0  0  0  0  0  0  0  0  0
    4.2469   81.2267  106.6418 H   0  0  0  0  0  0  0  0  0  0  0  0
    4.5062   79.4902  107.0796 H   0  0  0  0  0  0  0  0  0  0  0  0
    5.4620   80.7894  107.9012 H   0  0  0  0  0  0  0  0  0  0  0  0
    0.0149   85.3920  106.6253 H   0  0  0  0  0  0  0  0  0  0  0  0
   -1.0622   84.0701  107.1501 H   0  0  0  0  0  0  0  0  0  0  0  0
    2.3004   85.6211  107.5444 H   0  0  0  0  0  0  0  0  0  0  0  0
    1.8523   85.4964  109.2854 H   0  0  0  0  0  0  0  0  0  0  0  0
   -1.1341   85.1178  109.4878 H   0  0  0  0  0  0  0  0  0  0  0  0
   -1.8386   86.1251  108.1723 H   0  0  0  0  0  0  0  0  0  0  0  0
   -0.2093   86.5220  108.8137 H   0  0  0  0  0  0  0  0  0  0  0  0
    3.2518   83.4397  109.5079 H   0  0  0  0  0  0  0  0  0  0  0  0
    3.6994   83.5601  107.7543 H   0  0  0  0  0  0  0  0  0  0  0  0
    4.2081   84.8454  108.9106 H   0  0  0  0  0  0  0  0  0  0  0  0
  1  2  1  0
  3  1  1  0
  1  4  1  0
  5  3  1  0
  4  6  1  0
  4  7  1  0
  5  8  1  0
  5  9  2  0
  6  9  1  0
  6 10  1  0
  7 11  1  0
  8 12  2  0
  8 13  1  0
 10 14  1  0
 11 15  2  0
 11 16  1  0
 14 17  1  0
 14 18  1  0
 17 19  1  0
 18 20  1  0
  1 21  1  6
  2 22  1  0
  2 23  1  0
  2 24  1  0
  3 25  1  0
  3 26  1  0
  4 27  1  1
  6 28  1  6
  7 29  1  0
  9 30  1  0
 14 31  1  0
 16 32  1  0
 16 33  1  0
 16 34  1  0
 17 35  1  0
 17 36  1  0
 18 37  1  0
 18 38  1  0
 19 39  1  0
 19 40  1  0
 19 41  1  0
 20 42  1  0
 20 43  1  0
 20 44  1  0
M  CHG  2   2   1  13  -1
M  END
>  <model_server_result.job_id>  (1) 
5T-KYr_TFaLy4o1Hf306yA

>  <model_server_result.datetime_utc>  (1) 
2024-06-05 18:15:36

>  <model_server_result.server_version>  (1) 
0.9.11

>  <model_server_result.query_name>  (1) 
ligand

>  <model_server_result.source_id>  (1) 
pdb-bcif

>  <model_server_result.entry_id>  (1) 
2hu4

>  <model_server_params.name>  (1) 
atom_site

>  <model_server_params.value>  (1) 
{"label_asym_id":"I","auth_seq_id":800}

>  <model_server_stats.io_time_ms>  (1) 
9

>  <model_server_stats.parse_time_ms>  (1) 
56

>  <model_server_stats.create_model_time_ms>  (1) 
40

>  <model_server_stats.query_time_ms>  (1) 
245

>  <model_server_stats.encode_time_ms>  (1) 
0

>  <model_server_stats.element_count>  (1) 
20

>  <EmbedRMS>  (1) 
0.03242588270685566

>  <ScrubInfo>  (1) 
{"isomerGroup": 0, "isomerId": 0, "confId": 0, "nr_conformers:": 1, "nr_isomers:": 1}

$$$$
